power-flow-agent/results/ieee14/2026-09-23/gpt-5.6-sol/plan_act_nogate__matched/traces/18_case14-multistep-030-s0.transcript.txt
==============================================================================
TRANSCRIPT  plan_act_nogate  |  openrouter:openai/gpt-5.6-sol  |  case14  |  case14-multistep-030-s0  run 0
==============================================================================
date: 2026-09-23   seed: 0   difficulty: multistep   tool variant: load_split

[system]   (hash 7da5e2a37ec4, from methods/plan_act_nogate/method.json prompt_files)
You are a power system power-flow analysis assistant. You help the user complete power system analysis tasks from natural-language requests.

## What you can do
You complete tasks by calling tool functions:
1. Load an IEEE standard test system (14, 30, 57, 118, 300 buses)
2. Run AC power flow
3. Modify the load at a bus and re-solve
4. Disconnect or reconnect a line and re-solve
5. Query the network status
6. Run an N-1 contingency analysis (disconnect branches one at a time and rank the worst cases)
7. Generate remedial-action suggestions (what-if load shedding or voltage adjustment) to reduce violation risk

## Key rules
- Never fabricate any numerical result. Every voltage, power, loss, or loading value must come from a tool return value.
- If a tool reports an error or a non-converged power flow, say so explicitly and do not report numbers for that state.
- If the request is ambiguous, state the interpretation you are using.
- Bus and line identifiers in the request are MATPOWER 1-based ids; pass them to the tools as given, unless the request itself states a different indexing convention for that identifier (e.g. "(0-based)"), in which case convert it to the MATPOWER 1-based id before calling any tool.
- After a network modification, re-solve before reporting any value.
- Always reply in English.

## Reply format
After each analysis, reply in this structure:
1. One-sentence summary
2. Key numbers (total load, total generation, total losses, voltage range) taken from the tool outputs
3. Violations, if any
4. Suggested next step

[user]   (complete message, stored at run time)
Load case14, set the active load at bus 14 to 17.2 MW, disconnect the line between bus 1 and bus 5, reconnect the line between bus 1 and bus 5, and finally run an N-1 contingency analysis ranked by min voltage and report the 8 worst outages.

[tools available to the model]   (function-calling schema, --tool-variant load_split; enum values and defaults as sent)
  load_case(case_name: string* in {case14, case30, case57, case118, case300})  Load IEEE test case.
  run_powerflow()  Run power flow on current case.
  disconnect_line(from_bus: integer*, to_bus: integer*)  Disconnect line/branch between two buses and recompute.
  reconnect_line(from_bus: integer*, to_bus: integer*)  Reconnect line/branch between two buses and recompute.
  get_most_loaded_branch()  Get most loaded branch.
  run_n1_contingency(top_k: integer (default 5), criteria: string in {max_violations, max_overload, min_voltage} (default max_violations), max_candidates: integer (default 0))  Run N-1 contingency analysis.
  recommend_remedial_actions(max_actions: integer (default 5), allow_load_shed: boolean (default True), allow_voltage_control: boolean (default True), include_best_comparison: boolean (default True))  Recommend remedial actions.
  apply_remedial_action(action_index: integer*, confirmed: boolean (default False))  Apply one remedial action by index.
  get_status()  Get current network status.
  generate_plot(plot_type: string* in {voltage_heatmap, flow_diagram, violation_overview, comparison})  Generate one plot.
  set_active_load(bus_id: integer*, p_mw: number*)  Set a bus's active load (MW) and recompute. Use this when the request states only an active-power value. This tool has no reactive-power argument: the bus's present reactive load is always left unchanged. If the request also states a reactive-power value, use set_load instead.
  set_load(bus_id: integer*, p_mw: number*, q_mvar: number*)  Set a bus's active and reactive load (MW, Mvar) and recompute. Use this only when the request states both values. If the request states only an active-power value, use set_active_load instead -- do not invent a reactive-power value here to fill this in.

[planner system prompt]   (hash 76ea681e520a; as assembled today from methods/plan_act; the planning call sends this plus the request)
You are the planner of a power-system analysis agent. You cannot call tools yourself. Given the user's request, output ONLY a JSON object of the form
{"plan": [{"tool": "<tool_name>", "args": {...}}, ...]}
listing, in execution order, every tool call needed to answer the request. Use only the tools below with exactly these argument names (* = required); where an argument lists allowed values, use one of them verbatim. Bus and line identifiers in the request are MATPOWER 1-based ids; pass them to the tools as given, unless the request itself states a different indexing convention for that identifier (e.g. "(0-based)"), in which case convert it to the MATPOWER 1-based id. Do not include explanations, markdown, or any text outside the JSON.

Available tools:
- load_case(case_name: string in {case14, case30, case57, case118, case300}*): Load IEEE test case.
- run_powerflow((none)): Run power flow on current case.
- disconnect_line(from_bus: integer*, to_bus: integer*): Disconnect line/branch between two buses and recompute.
- reconnect_line(from_bus: integer*, to_bus: integer*): Reconnect line/branch between two buses and recompute.
- get_most_loaded_branch((none)): Get most loaded branch.
- run_n1_contingency(top_k: integer, criteria: string in {max_violations, max_overload, min_voltage}, max_candidates: integer): Run N-1 contingency analysis.
- recommend_remedial_actions(max_actions: integer, allow_load_shed: boolean, allow_voltage_control: boolean, include_best_comparison: boolean): Recommend remedial actions.
- apply_remedial_action(action_index: integer*, confirmed: boolean): Apply one remedial action by index.
- get_status((none)): Get current network status.
- generate_plot(plot_type: string in {voltage_heatmap, flow_diagram, violation_overview, comparison}*): Generate one plot.
- set_active_load(bus_id: integer*, p_mw: number*): Set a bus's active load (MW) and recompute. Use this when the request states only an active-power value. This tool has no reactive-power argument: the bus's present reactive load is always left unchanged. If the request also states a reactive-power value, use set_load instead.
- set_load(bus_id: integer*, p_mw: number*, q_mvar: number*): Set a bus's active and reactive load (MW, Mvar) and recompute. Use this only when the request states both values. If the request states only an active-power value, use set_active_load instead -- do not invent a reactive-power value here to fill this in.

[planner output]
[
 {
  "tool": "load_case",
  "args": {
   "case_name": "case14"
  }
 },
 {
  "tool": "set_active_load",
  "args": {
   "bus_id": 14,
   "p_mw": 17.2
  }
 },
 {
  "tool": "disconnect_line",
  "args": {
   "from_bus": 1,
   "to_bus": 5
  }
 },
 {
  "tool": "reconnect_line",
  "args": {
   "from_bus": 1,
   "to_bus": 5
  }
 },
 {
  "tool": "run_n1_contingency",
  "args": {
   "top_k": 8,
   "criteria": "min_voltage",
   "max_candidates": 0
  }
 }
]

--- round 1 ---
[assistant]   (644 in / 108 out tokens, 1.7 s)
{"plan":[{"tool":"load_case","args":{"case_name":"case14"}},{"tool":"set_active_load","args":{"bus_id":14,"p_mw":17.2}},{"tool":"disconnect_line","args":{"from_bus":1,"to_bus":5}},{"tool":"reconnect_line","args":{"from_bus":1,"to_bus":5}},{"tool":"run_n1_contingency","args":{"top_k":8,"criteria":"min_voltage","max_candidates":0}}]}

--- round 2 ---
[tool load_case]   (gate: not applied)
{"case_name": "case14", "n_buses": 14, "n_generators": 5, "n_lines": 20, "n_loads": 11, "total_load_mw": 271.9322468585065, "total_gen_capacity_mw": 772.4000000000001}
[tool set_active_load]   (gate: pass)
{"case_name": "case14", "converged": true, "bus_voltages": [{"bus_id": 1, "vm_pu": 1.06, "va_deg": 0.0, "is_violation": true, "violation_type": "overvoltage"}, {"bus_id": 2, "vm_pu": 1.0449999999999997, "va_deg": -5.452601937946843, "is_violation": false, "violation_type": null}, {"bus_id": 3, "vm_pu": 1.01, "va_deg": -13.877196781766337, "is_violation": false, "violation_type": null}, {"bus_id": 4, "vm_pu": 1.0167612434348499, "va_deg": -11.037237747656851, "is_violation": false, "violation_type": null}, {"bus_id": 5, "vm_pu": 1.018549087791806, "va_deg": -9.386957377664258, "is_violation": false, "violation_type": null}, {"bus_id": 6, "vm_pu": 1.0699999999999996, "va_deg": -15.022546171925647, "is_violation": true, "violation_type": "overvoltage"}, {"bus_id": 7, "vm_pu": 1.0610086021307594, "va_deg": -14.173239314630242, "is_violation": true, "violation_type": "overvoltage"}, {"bus_id": 8, "vm_pu": 1.09, "va_deg": -14.17323931463024, "is_violation": true, "violation_type": "overvoltage"}, {"bus_id": 9, "vm_pu": 1.055390738444245, "va_deg": -15.797744277584684, "is_violation": true, "violation_type": "overvoltage"}, {"bus_id": 10, "vm_pu": 1.0510687909438596, "va_deg": -15.925419189015297, "is_violation": true, "violation_type": "overvoltage"}, {"bus_id": 11, "vm_pu": 1.0567588393995124, "va_deg": -15.613672685856127, "is_violation": true, "violation_type": "overvoltage"}, {"bus_id": 12, "vm_pu": 1.0545825170570846, "va_deg": -15.930441367425695, "is_violation": true, "violation_type": "overvoltage"}, {"bus_id": 13, "vm_pu": 1.0497631648769643, "va_deg": -16.024060651996063, "is_violation": false, "violation_type": null}, {"bus_id": 14, "vm_pu": 1.033680478504999, "va_deg": -17.09492682818108, "is_violation": false, "violation_type": null}], "line_flows": [{"line_id": 0, "from_bus": 1, "to_bus": 2, "p_from_mw": 171.1076851102111, "q_from_mvar": -23.666809345274203, "loading_percent": 1.646051760559988, "is_violation": false}, {"line_id": 1, "from_bus": 1, "to_bus": 5, "p_from_mw": 80.56644366294397, "q_from_mvar": 3.900816484577236, "loading_percent": 0.7687194011076384, "is_violation": false}, {"line_id": 2, "from_bus": 2, "to_bus": 3, "p_from_mw": 79.3866605136176, "q_from_mvar": 2.993122262156631, "loading_percent": 0.7678997192190825, "is_violation": false}, {"line_id": 3, "from_bus": 2, "to_bus": 4, "p_from_mw": 58.723354950790686, "q_from_mvar": -1.6133871010275285, "loading_percent": 0.5678363942379396, "is_violation": false}, {"line_id": 4, "from_bus": 2, "to_bus": 5, "p_from_mw": 43.060696165486945, "q_from_mvar": 1.3466792928914022, "loading_percent": 0.41789193888734794, "is_violation": false}, {"line_id": 5, "from_bus": 3, "to_bus": 4, "p_from_mw": -26.896142310304732, "q_from_mvar": 6.62977449932612, "loading_percent": 0.2801495293632337, "is_violation": false}, {"line_id": 6, "from_bus": 4, "to_bus": 5, "p_from_mw": -65.30708560150585, "q_from_mvar": 17.407343888879375, "loading_percent": 0.6714448474992071, "is_violation": false}, {"line_id": 7, "from_bus": 6, "to_bus": 11, "p_from_mw": 7.557670650001298, "q_from_mvar": 3.5444669529672947, "loading_percent": 0.07880253406751375, "is_violation": false}, {"line_id": 8, "from_bus": 6, "to_bus": 12, "p_from_mw": 8.217476386624373, "q_from_mvar": 2.555907857646669, "loading_percent": 0.0812403263471644, "is_violation": false}, {"line_id": 9, "from_bus": 6, "to_bus": 13, "p_from_mw": 18.74497684671995, "q_from_mvar": 7.235131537940213, "loading_percent": 0.1896801355622598, "is_violation": false}, {"line_id": 10, "from_bus": 9, "to_bus": 10, "p_from_mw": 4.343132186742463, "q_from_mvar": 3.7663279501923634, "loading_percent": 0.055020466911485176, "is_violation": false}, {"line_id": 11, "from_bus": 9, "to_bus": 14, "p_from_mw": 10.783398864077496, "q_from_mvar": 3.508251417114831, "loading_percent": 0.10853112697616271, "is_violation": false}, {"line_id": 12, "from_bus": 10, "to_bus": 11, "p_from_mw": -3.7826859934141304, "q_from_mvar": -1.4892993591885033, "loading_percent": 0.0390685305417067, "is_violation": false}, {"line_id": 13, "from_bus": 12, "to_bus": 13, "p_from_mw": 1.672750358208408, "q_from_mvar": 0.6946379330201229, "loading_percent": 0.0173484992726709, "is_violation": false}, {"line_id": 14, "from_bus": 13, "to_bus": 14, "p_from_mw": 6.635850393145562, "q_from_mvar": 1.6464211518252638, "loading_percent": 0.06578729767831301, "is_violation": false}, {"line_id": 100000, "from_bus": 4, "to_bus": 7, "p_from_mw": 28.856273128589155, "q_from_mvar": -9.836823492947067, "loading_percent": 0.30287140756612557, "is_violation": false}, {"line_id": 100001, "from_bus": 4, "to_bus": 9, "p_from_mw": 16.524329743750048, "q_from_mvar": -0.4642449272049689, "loading_percent": 0.16422565515010748, "is_violation": false}, {"line_id": 100002, "from_bus": 5, "to_bus": 6, "p_from_mw": 45.56495958433128, "q_from_mvar": 12.15739294972745, "loading_percent": 0.467678153563213, "is_violation": false}, {"line_id": 100003, "from_bus": 7, "to_bus": 8, "p_from_mw": -5.0939608627424904e-14, "q_from_mvar": -17.462459566880437, "loading_percent": 0.16624604185047082, "is_violation": false}, {"line_id": 100004, "from_bus": 7, "to_bus": 9, "p_from_mw": 28.856273128192782, "q_from_mvar": 5.827344038837356, "loading_percent": 0.28026307082208396, "is_violation": false}], "total_generation_mw": 290.65768067483543, "total_load_mw": 275.141429955464, "total_loss_mw": 15.516250726168767, "voltage_violations": [{"bus_id": 1, "vm_pu": 1.06, "va_deg": 0.0, "is_violation": true, "violation_type": "overvoltage"}, {"bus_id": 6, "vm_pu": 1.0699999999999996, "va_deg": -15.022546171925647, "is_violation": true, "violation_type": "overvoltage"}, {"bus_id": 7, "vm_pu": 1.0610086021307594, "va_deg": -14.173239314630242, "is_violation": true, "violation_type": "overvoltage"}, {"bus_id": 8, "vm_pu": 1.09, "va_deg": -14.17323931463024, "is_violation": true, "violation_type": "overvoltage"}, {"bus_id": 9, "vm_pu": 1.055390738444245, "va_deg": -15.797744277584684, "is_violation": true, "violation_type": "overvoltage"}, {"bus_id": 10, "vm_pu": 1.0510687909438596, "va_deg": -15.925419189015297, "is_violation": true, "violation_type": "overvoltage"}, {"bus_id": 11, "vm_pu": 1.0567588393995124, "va_deg": -15.613672685856127, "is_violation": true, "violation_type": "overvoltage"}, {"bus_id": 12, "vm_pu": 1.0545825170570846, "va_deg": -15.930441367425695, "is_violation": true, "violation_type": "overvoltage"}], "thermal_violations": [], "summary_text": "", "solver_backend": "pandapower", "llm_prompt": null, "llm_response": null, "resolved_bus_id": 14, "assumption": "reactive load at this bus is unchanged from its present value"}
[tool disconnect_line]   (gate: pass)
{"case_name": "case14", "converged": true, "bus_voltages": [{"bus_id": 1, "vm_pu": 1.06, "va_deg": 0.0, "is_violation": true, "violation_type": "overvoltage"}, {"bus_id": 2, "vm_pu": 1.045, "va_deg": -8.384501830561186, "is_violation": false, "violation_type": null}, {"bus_id": 3, "vm_pu": 1.01, "va_deg": -18.4113862977607, "is_violation": false, "violation_type": null}, {"bus_id": 4, "vm_pu": 1.007553672969117, "va_deg": -16.848549634146543, "is_violation": false, "violation_type": null}, {"bus_id": 5, "vm_pu": 1.0052324248656455, "va_deg": -16.102842422276005, "is_violation": false, "violation_type": null}, {"bus_id": 6, "vm_pu": 1.07, "va_deg": -21.553937804725503, "is_violation": true, "violation_type": "overvoltage"}, {"bus_id": 7, "vm_pu": 1.0571678065625352, "va_deg": -20.17042924147018, "is_violation": true, "violation_type": "overvoltage"}, {"bus_id": 8, "vm_pu": 1.0899999999999999, "va_deg": -20.17042924147018, "is_violation": true, "violation_type": "overvoltage"}, {"bus_id": 9, "vm_pu": 1.0522196563884063, "va_deg": -21.880698812921636, "is_violation": true, "violation_type": "overvoltage"}, {"bus_id": 10, "vm_pu": 1.0485199611100942, "va_deg": -22.086363112704607, "is_violation": false, "violation_type": null}, {"bus_id": 11, "vm_pu": 1.0555394757247385, "va_deg": -21.955057183678154, "is_violation": true, "violation_type": "overvoltage"}, {"bus_id": 12, "vm_pu": 1.0542805982897447, "va_deg": -22.433360120873676, "is_violation": true, "violation_type": "overvoltage"}, {"bus_id": 13, "vm_pu": 1.049374560167165, "va_deg": -22.49194606278384, "is_violation": false, "violation_type": null}, {"bus_id": 14, "vm_pu": 1.031699388306966, "va_deg": -23.34917986980683, "is_violation": false, "violation_type": null}], "line_flows": [{"line_id": 0, "from_bus": 1, "to_bus": 2, "p_from_mw": 260.3962406386124, "q_from_mvar": -41.373410450032836, "loading_percent": 2.5125080021431585, "is_violation": false}, {"line_id": 1, "from_bus": 1, "to_bus": 5, "p_from_mw": 0.0, "q_from_mvar": 0.0, "loading_percent": 0.0, "is_violation": false}, {"line_id": 2, "from_bus": 2, "to_bus": 3, "p_from_mw": 93.85481941151423, "q_from_mvar": 1.9492186645210157, "loading_percent": 0.9073999163864083, "is_violation": false}, {"line_id": 3, "from_bus": 2, "to_bus": 4, "p_from_mw": 87.81343547698097, "q_from_mvar": -2.099918797211025, "loading_percent": 0.8490506983653954, "is_violation": false}, {"line_id": 4, "from_bus": 2, "to_bus": 5, "p_from_mw": 81.96507180515172, "q_from_mvar": 0.6383870924284487, "loading_percent": 0.7923015592739199, "is_violation": false}, {"line_id": 5, "from_bus": 3, "to_bus": 4, "p_from_mw": -13.502159197643099, "q_from_mvar": 6.303301353277732, "loading_percent": 0.15483748840898703, "is_violation": false}, {"line_id": 6, "from_bus": 4, "to_bus": 5, "p_from_mw": -26.785348003480298, "q_from_mvar": 14.24936306771835, "loading_percent": 0.3041643609192538, "is_violation": false}, {"line_id": 7, "from_bus": 6, "to_bus": 11, "p_from_mw": 6.267519751028394, "q_from_mvar": 4.8001751233311944, "loading_percent": 0.07452584226319392, "is_violation": false}, {"line_id": 8, "from_bus": 6, "to_bus": 12, "p_from_mw": 8.085786017234078, "q_from_mvar": 2.742034185842706, "loading_percent": 0.08060108365423123, "is_violation": false}, {"line_id": 9, "from_bus": 6, "to_bus": 13, "p_from_mw": 18.103448044308774, "q_from_mvar": 7.863865224849835, "loading_percent": 0.1863273824445016, "is_violation": false}, {"line_id": 10, "from_bus": 9, "to_bus": 10, "p_from_mw": 5.6267152688861986, "q_from_mvar": 2.497208998764819, "loading_percent": 0.059095573517914717, "is_violation": false}, {"line_id": 11, "from_bus": 9, "to_bus": 14, "p_from_mw": 11.552289078460761, "q_from_mvar": 2.686680131808195, "loading_percent": 0.11385831353756398, "is_violation": false}, {"line_id": 12, "from_bus": 10, "to_bus": 11, "p_from_mw": -2.5005527495429605, "q_from_mvar": -2.762269658579224, "loading_percent": 0.03589452120811098, "is_violation": false}, {"line_id": 13, "from_bus": 12, "to_bus": 13, "p_from_mw": 1.5423062614006473, "q_from_mvar": 0.8833581020920384, "loading_percent": 0.017028856110493325, "is_violation": false}, {"line_id": 14, "from_bus": 13, "to_bus": 14, "p_from_mw": 5.872288738047014, "q_from_mvar": 2.4801860873365564, "loading_percent": 0.061359940521340854, "is_violation": false}, {"line_id": 100000, "from_bus": 4, "to_bus": 7, "p_from_mw": 30.1783586927175, "q_from_mvar": -12.401360023284218, "loading_percent": 0.32709580053854304, "is_violation": false}, {"line_id": 100001, "from_bus": 4, "to_bus": 9, "p_from_mw": 17.254717474918234, "q_from_mvar": -1.5660833411523096, "loading_percent": 0.1736944599566826, "is_violation": false}, {"line_id": 100002, "from_bus": 5, "to_bus": 6, "p_from_mw": 43.501589507281906, "q_from_mvar": 5.741026130183305, "loading_percent": 0.4409129946034269, "is_violation": false}, {"line_id": 100003, "from_bus": 7, "to_bus": 8, "p_from_mw": 2.0302702011464596e-14, "q_from_mvar": -19.70430764741504, "loading_percent": 0.18827040451328422, "is_violation": false}, {"line_id": 100004, "from_bus": 7, "to_bus": 9, "p_from_mw": 30.178358692623036, "q_from_mvar": 5.205488017940929, "loading_percent": 0.29260587269490856, "is_violation": false}], "total_generation_mw": 299.37979254029284, "total_load_mw": 275.141429955464, "total_loss_mw": 24.23836261427834, "voltage_violations": [{"bus_id": 1, "vm_pu": 1.06, "va_deg": 0.0, "is_violation": true, "violation_type": "overvoltage"}, {"bus_id": 6, "vm_pu": 1.07, "va_deg": -21.553937804725503, "is_violation": true, "violation_type": "overvoltage"}, {"bus_id": 7, "vm_pu": 1.0571678065625352, "va_deg": -20.17042924147018, "is_violation": true, "violation_type": "overvoltage"}, {"bus_id": 8, "vm_pu": 1.0899999999999999, "va_deg": -20.17042924147018, "is_violation": true, "violation_type": "overvoltage"}, {"bus_id": 9, "vm_pu": 1.0522196563884063, "va_deg": -21.880698812921636, "is_violation": true, "violation_type": "overvoltage"}, {"bus_id": 11, "vm_pu": 1.0555394757247385, "va_deg": -21.955057183678154, "is_violation": true, "violation_type": "overvoltage"}, {"bus_id": 12, "vm_pu": 1.0542805982897447, "va_deg": -22.433360120873676, "is_violation": true, "violation_type": "overvoltage"}], "thermal_violations": [], "summary_text": "", "solver_backend": "pandapower", "llm_prompt": null, "llm_response": null}
[tool reconnect_line]   (gate: pass)
{"case_name": "case14", "converged": true, "bus_voltages": [{"bus_id": 1, "vm_pu": 1.06, "va_deg": 0.0, "is_violation": true, "violation_type": "overvoltage"}, {"bus_id": 2, "vm_pu": 1.0449999999999997, "va_deg": -5.452601937946843, "is_violation": false, "violation_type": null}, {"bus_id": 3, "vm_pu": 1.01, "va_deg": -13.877196781766337, "is_violation": false, "violation_type": null}, {"bus_id": 4, "vm_pu": 1.0167612434348499, "va_deg": -11.037237747656851, "is_violation": false, "violation_type": null}, {"bus_id": 5, "vm_pu": 1.018549087791806, "va_deg": -9.386957377664258, "is_violation": false, "violation_type": null}, {"bus_id": 6, "vm_pu": 1.0699999999999996, "va_deg": -15.022546171925647, "is_violation": true, "violation_type": "overvoltage"}, {"bus_id": 7, "vm_pu": 1.0610086021307594, "va_deg": -14.173239314630242, "is_violation": true, "violation_type": "overvoltage"}, {"bus_id": 8, "vm_pu": 1.09, "va_deg": -14.17323931463024, "is_violation": true, "violation_type": "overvoltage"}, {"bus_id": 9, "vm_pu": 1.055390738444245, "va_deg": -15.797744277584684, "is_violation": true, "violation_type": "overvoltage"}, {"bus_id": 10, "vm_pu": 1.0510687909438596, "va_deg": -15.925419189015297, "is_violation": true, "violation_type": "overvoltage"}, {"bus_id": 11, "vm_pu": 1.0567588393995124, "va_deg": -15.613672685856127, "is_violation": true, "violation_type": "overvoltage"}, {"bus_id": 12, "vm_pu": 1.0545825170570846, "va_deg": -15.930441367425695, "is_violation": true, "violation_type": "overvoltage"}, {"bus_id": 13, "vm_pu": 1.0497631648769643, "va_deg": -16.024060651996063, "is_violation": false, "violation_type": null}, {"bus_id": 14, "vm_pu": 1.033680478504999, "va_deg": -17.09492682818108, "is_violation": false, "violation_type": null}], "line_flows": [{"line_id": 0, "from_bus": 1, "to_bus": 2, "p_from_mw": 171.1076851102111, "q_from_mvar": -23.666809345274203, "loading_percent": 1.646051760559988, "is_violation": false}, {"line_id": 1, "from_bus": 1, "to_bus": 5, "p_from_mw": 80.56644366294397, "q_from_mvar": 3.900816484577236, "loading_percent": 0.7687194011076384, "is_violation": false}, {"line_id": 2, "from_bus": 2, "to_bus": 3, "p_from_mw": 79.3866605136176, "q_from_mvar": 2.993122262156631, "loading_percent": 0.7678997192190825, "is_violation": false}, {"line_id": 3, "from_bus": 2, "to_bus": 4, "p_from_mw": 58.723354950790686, "q_from_mvar": -1.6133871010275285, "loading_percent": 0.5678363942379396, "is_violation": false}, {"line_id": 4, "from_bus": 2, "to_bus": 5, "p_from_mw": 43.060696165486945, "q_from_mvar": 1.3466792928914022, "loading_percent": 0.41789193888734794, "is_violation": false}, {"line_id": 5, "from_bus": 3, "to_bus": 4, "p_from_mw": -26.896142310304732, "q_from_mvar": 6.62977449932612, "loading_percent": 0.2801495293632337, "is_violation": false}, {"line_id": 6, "from_bus": 4, "to_bus": 5, "p_from_mw": -65.30708560150585, "q_from_mvar": 17.407343888879375, "loading_percent": 0.6714448474992071, "is_violation": false}, {"line_id": 7, "from_bus": 6, "to_bus": 11, "p_from_mw": 7.557670650001298, "q_from_mvar": 3.5444669529672947, "loading_percent": 0.07880253406751375, "is_violation": false}, {"line_id": 8, "from_bus": 6, "to_bus": 12, "p_from_mw": 8.217476386624373, "q_from_mvar": 2.555907857646669, "loading_percent": 0.0812403263471644, "is_violation": false}, {"line_id": 9, "from_bus": 6, "to_bus": 13, "p_from_mw": 18.74497684671995, "q_from_mvar": 7.235131537940213, "loading_percent": 0.1896801355622598, "is_violation": false}, {"line_id": 10, "from_bus": 9, "to_bus": 10, "p_from_mw": 4.343132186742463, "q_from_mvar": 3.7663279501923634, "loading_percent": 0.055020466911485176, "is_violation": false}, {"line_id": 11, "from_bus": 9, "to_bus": 14, "p_from_mw": 10.783398864077496, "q_from_mvar": 3.508251417114831, "loading_percent": 0.10853112697616271, "is_violation": false}, {"line_id": 12, "from_bus": 10, "to_bus": 11, "p_from_mw": -3.7826859934141304, "q_from_mvar": -1.4892993591885033, "loading_percent": 0.0390685305417067, "is_violation": false}, {"line_id": 13, "from_bus": 12, "to_bus": 13, "p_from_mw": 1.672750358208408, "q_from_mvar": 0.6946379330201229, "loading_percent": 0.0173484992726709, "is_violation": false}, {"line_id": 14, "from_bus": 13, "to_bus": 14, "p_from_mw": 6.635850393145562, "q_from_mvar": 1.6464211518252638, "loading_percent": 0.06578729767831301, "is_violation": false}, {"line_id": 100000, "from_bus": 4, "to_bus": 7, "p_from_mw": 28.856273128589155, "q_from_mvar": -9.836823492947067, "loading_percent": 0.30287140756612557, "is_violation": false}, {"line_id": 100001, "from_bus": 4, "to_bus": 9, "p_from_mw": 16.524329743750048, "q_from_mvar": -0.4642449272049689, "loading_percent": 0.16422565515010748, "is_violation": false}, {"line_id": 100002, "from_bus": 5, "to_bus": 6, "p_from_mw": 45.56495958433128, "q_from_mvar": 12.15739294972745, "loading_percent": 0.467678153563213, "is_violation": false}, {"line_id": 100003, "from_bus": 7, "to_bus": 8, "p_from_mw": -5.0939608627424904e-14, "q_from_mvar": -17.462459566880437, "loading_percent": 0.16624604185047082, "is_violation": false}, {"line_id": 100004, "from_bus": 7, "to_bus": 9, "p_from_mw": 28.856273128192782, "q_from_mvar": 5.827344038837356, "loading_percent": 0.28026307082208396, "is_violation": false}], "total_generation_mw": 290.65768067483543, "total_load_mw": 275.141429955464, "total_loss_mw": 15.516250726168767, "voltage_violations": [{"bus_id": 1, "vm_pu": 1.06, "va_deg": 0.0, "is_violation": true, "violation_type": "overvoltage"}, {"bus_id": 6, "vm_pu": 1.0699999999999996, "va_deg": -15.022546171925647, "is_violation": true, "violation_type": "overvoltage"}, {"bus_id": 7, "vm_pu": 1.0610086021307594, "va_deg": -14.173239314630242, "is_violation": true, "violation_type": "overvoltage"}, {"bus_id": 8, "vm_pu": 1.09, "va_deg": -14.17323931463024, "is_violation": true, "violation_type": "overvoltage"}, {"bus_id": 9, "vm_pu": 1.055390738444245, "va_deg": -15.797744277584684, "is_violation": true, "violation_type": "overvoltage"}, {"bus_id": 10, "vm_pu": 1.0510687909438596, "va_deg": -15.925419189015297, "is_violation": true, "violation_type": "overvoltage"}, {"bus_id": 11, "vm_pu": 1.0567588393995124, "va_deg": -15.613672685856127, "is_violation": true, "violation_type": "overvoltage"}, {"bus_id": 12, "vm_pu": 1.0545825170570846, "va_deg": -15.930441367425695, "is_violation": true, "violation_type": "overvoltage"}], "thermal_violations": [], "summary_text": "", "solver_backend": "pandapower", "llm_prompt": null, "llm_response": null}
[tool run_n1_contingency]   (gate: not applied)
{"plot_type": "n1_ranking", "figure_json": "<plotly figure, 16 KB, omitted; see the .json trace>", "n1_report": {"case_name": "case14", "base_converged": true, "top_k": 8, "criteria": "min_voltage", "results": [{"branch_id": 5, "branch_type": "line", "from_bus": 3, "to_bus": 4, "converged": true, "n_voltage_violations": 9, "n_thermal_violations": 0, "delta_voltage_violations": 1, "delta_thermal_violations": 0, "worst_vm_pu": 1.01, "worst_loading_percent": 1.7106244285212273, "score": 179900.0, "notes": ""}, {"branch_id": 100002, "branch_type": "trafo", "from_bus": 5, "to_bus": 6, "converged": true, "n_voltage_violations": 9, "n_thermal_violations": 0, "delta_voltage_violations": 1, "delta_thermal_violations": 0, "worst_vm_pu": 1.01, "worst_loading_percent": 1.6934460301028333, "score": 179900.0, "notes": ""}, {"branch_id": 11, "branch_type": "line", "from_bus": 9, "to_bus": 14, "converged": true, "n_voltage_violations": 8, "n_thermal_violations": 0, "delta_voltage_violations": 0, "delta_thermal_violations": 0, "worst_vm_pu": 0.9918198456142288, "worst_loading_percent": 1.6462785310427128, "score": 170081.80154385773, "notes": ""}, {"branch_id": 13, "branch_type": "line", "from_bus": 12, "to_bus": 13, "converged": true, "n_voltage_violations": 8, "n_thermal_violations": 0, "delta_voltage_violations": 0, "delta_thermal_violations": 0, "worst_vm_pu": 1.01, "worst_loading_percent": 1.6461867769134915, "score": 169900.0, "notes": ""}, {"branch_id": 14, "branch_type": "line", "from_bus": 13, "to_bus": 14, "converged": true, "n_voltage_violations": 8, "n_thermal_violations": 0, "delta_voltage_violations": 0, "delta_thermal_violations": 0, "worst_vm_pu": 1.01, "worst_loading_percent": 1.6496094115383566, "score": 169900.0, "notes": ""}, {"branch_id": 1, "branch_type": "line", "from_bus": 1, "to_bus": 5, "converged": true, "n_voltage_violations": 7, "n_thermal_violations": 0, "delta_voltage_violations": -1, "delta_thermal_violations": 0, "worst_vm_pu": 1.0052324248656455, "worst_loading_percent": 2.5125080021431585, "score": 159947.67575134354, "notes": ""}, {"branch_id": 2, "branch_type": "line", "from_bus": 2, "to_bus": 3, "converged": true, "n_voltage_violations": 7, "n_thermal_violations": 0, "delta_voltage_violations": -1, "delta_thermal_violations": 0, "worst_vm_pu": 1.0088531050015188, "worst_loading_percent": 1.5643950240005897, "score": 159911.46894998482, "notes": ""}, {"branch_id": 4, "branch_type": "line", "from_bus": 2, "to_bus": 5, "converged": true, "n_voltage_violations": 7, "n_thermal_violations": 0, "delta_voltage_violations": -1, "delta_thermal_violations": 0, "worst_vm_pu": 1.0089751778046867, "worst_loading_percent": 1.497205608276558, "score": 159910.24822195314, "notes": ""}], "summary_text": "N-1 completed over 20 branches. Worst outage: 3-4 (line), V violations=9 (delta=1), thermal violations=0 (delta=0)."}}

--- round 3 ---
[assistant final]   (17082 in / 789 out tokens, 9.3 s)
1. **Summary:** IEEE 14-bus was loaded, bus 14 active load was set to 17.2 MW, line 1–5 was successfully disconnected and reconnected with converged solutions, and the final N-1 analysis completed over 20 branches with all eight reported cases converging.

2. **Key numbers for the final reconnected base case:**
   - Total load: **275.141 MW**
   - Total generation: **290.658 MW**
   - Total active-power losses: **15.516 MW**
   - Voltage range: **1.010–1.090 p.u.**

   **Eight worst outages ranked by the requested minimum-voltage criterion:**

   | Rank | Outaged branch | Type | Minimum voltage | Voltage violations | Worst loading |
   |---:|---|---|---:|---:|---:|
   | 1 | 3–4 | Line | 1.0100 p.u. | 9 | 1.711% |
   | 2 | 5–6 | Transformer | 1.0100 p.u. | 9 | 1.693% |
   | 3 | 9–14 | Line | 0.99182 p.u. | 8 | 1.646% |
   | 4 | 12–13 | Line | 1.0100 p.u. | 8 | 1.646% |
   | 5 | 13–14 | Line | 1.0100 p.u. | 8 | 1.650% |
   | 6 | 1–5 | Line | 1.00523 p.u. | 7 | 2.513% |
   | 7 | 2–3 | Line | 1.00885 p.u. | 7 | 1.564% |
   | 8 | 2–5 | Line | 1.00898 p.u. | 7 | 1.497% |

3. **Violations:**
   - Final base case: **8 overvoltage violations**, at buses **1, 6, 7, 8, 9, 10, 11, and 12**.
   - Final base case: **no thermal violations**.
   - The 3–4 line and 5–6 transformer outages each increase the voltage-violation count from 8 to **9**.
   - None of the eight reported contingencies has a thermal violation.

4. **Suggested next step:** Evaluate remedial generator-voltage or reactive-power adjustments to reduce the existing overvoltages, prioritizing security under the **3–4 line** and **5–6 transformer** outages.
